/*--------------------------------*- C++ -*----------------------------------*\
| =========                 |                                                 |
| \\      /  F ield         | OpenFOAM: The Open Source CFD Toolbox           |
|  \\    /   O peration     | Version:  1.5                                   |
|   \\  /    A nd           | Web:      http://www.OpenFOAM.org               |
|    \\/     M anipulation  |                                                 |
\*---------------------------------------------------------------------------*/
FoamFile
{
    version     2.0;
    format      ascii;
    class       dictionary;
    object      loggingProperties;
}
// * * * * * * * * * * * * * * * * * * * * * * * * * * * * * * * * * * * * * //
#include "../myVars" //Include global variables

probe_length #calc "2*$wave_height";

surfaceElevation // Name of the wave gauges set
{
    
    type waveGauge;
    
    pointDistribution lineDistribution; // Options are:     lineDistribution, circularDistribution,                 quadrilateralDistribution, userDefinedDistribution
    N 200;
    linestart (0 #calc "-1*$wave_height" 0.05);//(x y z)
    lineend   ($wave_length #calc "-1*$wave_height" 0.05);
    add       ( 0 #calc "2*$wave_height" 0); // Length and orientation of gauges
    axis      y;
    stretch 1.;
    
    // REQURIED ONLY FOR NEW FUNCTIONOBJECT IMPLEMENTATION
    writeControl adjustableRunTime;
    writeInterval 0.02;
}

// ************************************************************************* //
