/*--------------------------------*- C++ -*----------------------------------*\
| =========                 |                                                 |
| \\      /  F ield         | OpenFOAM: The Open Source CFD Toolbox           |
|  \\    /   O peration     | Version:  1.5                                   |
|   \\  /    A nd           | Web:      http://www.OpenFOAM.org               |
|    \\/     M anipulation  |                                                 |
\*---------------------------------------------------------------------------*/
FoamFile
{
    version     2.0;
    format      ascii;
    class       dictionary;
    object      controlDict;
}
// * * * * * * * * * * * * * * * * * * * * * * * * * * * * * * * * * * * * * //

#include "../myVars" //Include global variables

application     interFoam;

startFrom       startTime;

startTime       0;

stopAt          endTime;

endTime         64;

deltaT          0.001;

writeControl    adjustableRunTime;

writeInterval   4;

purgeWrite      0;

writeFormat     ascii;

writePrecision  6;

writeCompression off;

timeFormat      general;

timePrecision   6;

runTimeModifiable yes;

adjustTimeStep  yes;

maxAlphaCo      0.25;

maxCo		0.5;

maxDeltaT	1;


functions
{
    #includeIfPresent "../waveGaugesNProbes/surfaceElevation_controlDict"; //Needed to get surfaceElevation during runtime
}

// ************************************************************************* //
