/*--------------------------------*- C++ -*----------------------------------*\
| =========                 |                                                 |
| \\      /  F ield         | OpenFOAM: The Open Source CFD Toolbox           |
|  \\    /   O peration     | Version:  v2012                                 |
|   \\  /    A nd           | Website:  www.openfoam.com                      |
|    \\/     M anipulation  |                                                 |
\*---------------------------------------------------------------------------*/
FoamFile
{
    version     2.0;
    format      ascii;
    class       dictionary;
    location    "system";
    object      fvSolution;
}
// * * * * * * * * * * * * * * * * * * * * * * * * * * * * * * * * * * * * * //

solvers
{
    "alpha.water.*"
    {
        nAlphaCorr      3;
        nAlphaSubCycles 1;
        cAlpha          1;

        MULESCorr       yes;
        nLimiterIter    5;
        alphaApplyPrevCorr  yes;

        solver          smoothSolver;
        smoother        symGaussSeidel;
        tolerance       1e-8;
        relTol          0;
    }

    "pcorr.*"
    {
        solver          PCG;
        preconditioner
        {
            preconditioner  GAMG;
            tolerance       1e-5;
            relTol          0;
            smoother        DICGaussSeidel;
            cacheAgglomeration no;
        }

        tolerance       1e-05;
        relTol          0;
        maxIter         100;
    }

    p_rgh
    {
        solver          GAMG;
        tolerance       1e-8;
        relTol          0.01;
        smoother        DIC;
    }

    p_rghFinal
    {
        solver          PCG;
        preconditioner
        {
            preconditioner  GAMG;
            tolerance       1e-8;
            relTol          0;
            nVcycles        2;
            smoother        DICGaussSeidel;
            nPreSweeps      2;
        }

        tolerance       1e-8;
        relTol          0;
        maxIter         20;
    }
}

PIMPLE
{
    momentumPredictor   no; //yes only when high Re number is involved
    nOuterCorrectors    3;
    nCorrectors         2;
    nNonOrthogonalCorrectors 2;
    correctPhi          true;
    moveMeshOuterCorrectors true;
}

relaxationFactors
{
    equations
    {
        ".*" 1; //for transient incompressible flows
    }
}


// ************************************************************************* //
